Version 4
SHEET 1 880 680
WIRE 528 -32 416 -32
WIRE 416 32 416 -32
WIRE 528 32 528 -32
WIRE 224 80 112 80
WIRE 352 80 304 80
WIRE 112 128 112 80
WIRE 528 144 528 112
WIRE 416 160 416 128
WIRE 112 240 112 208
FLAG 112 240 0
FLAG 416 160 0
FLAG 528 144 0
SYMBOL voltage 112 112 R0
WINDOW 123 0 0 Left 2
WINDOW 39 24 124 Left 2
SYMATTR InstName V1
SYMATTR Value 3.3V
SYMATTR SpiceLine Rser=1m
SYMBOL res 320 64 R90
WINDOW 0 0 56 VBottom 2
WINDOW 3 32 56 VTop 2
SYMATTR InstName R1
SYMATTR Value 1K
SYMATTR SpiceLine tol=1 pwr=0.1
SYMBOL npn 352 32 R0
SYMATTR InstName Q1
SYMATTR Value BC817-25
SYMBOL voltage 528 16 R0
WINDOW 123 0 0 Left 2
WINDOW 39 24 124 Left 2
SYMATTR InstName V2
SYMATTR Value 5V
SYMATTR SpiceLine Rser=1m
TEXT 78 264 Left 2 !.tran 0 100m 0
