Version 4
SHEET 1 880 680
WIRE 144 -80 144 -96
WIRE -64 32 -64 16
WIRE 176 48 96 48
WIRE 288 48 256 48
WIRE -64 128 -64 112
WIRE 208 144 208 128
WIRE 96 160 96 48
WIRE 176 160 96 160
WIRE 288 176 288 48
WIRE 288 176 240 176
WIRE -160 192 -192 192
WIRE -48 192 -80 192
WIRE -16 192 -48 192
WIRE 0 192 -16 192
WIRE 144 192 144 0
WIRE 144 192 64 192
WIRE 176 192 144 192
WIRE 208 224 208 208
WIRE -16 240 -16 192
WIRE 96 240 96 160
WIRE -192 288 -192 192
WIRE -160 288 -192 288
WIRE -48 288 -48 192
WIRE -48 288 -96 288
WIRE 144 304 144 192
WIRE 176 304 144 304
WIRE 288 304 288 176
WIRE 288 304 256 304
WIRE -16 336 -16 304
WIRE 96 336 96 304
WIRE 144 336 144 304
WIRE 144 448 144 416
FLAG -64 128 0
FLAG -64 16 +V
FLAG 208 128 +V
FLAG 208 224 0
FLAG -16 336 0
FLAG 96 336 0
FLAG 144 -96 +V
FLAG 144 448 0
SYMBOL Opamps\\UniversalOpamp2 208 176 R0
SYMATTR InstName opamp
SYMBOL voltage -64 16 R0
SYMATTR InstName V1
SYMATTR Value +5V
SYMBOL polcap 64 176 R90
WINDOW 0 0 32 VBottom 2
WINDOW 3 32 32 VTop 2
SYMATTR InstName C1
SYMATTR Value 10µ
SYMATTR Description Capacitor
SYMATTR Type cap
SYMATTR SpiceLine V=16 Irms=35m Rser=2.8 Lser=0 mfg="Nichicon" pn="UPR1C100MAH" type="Al electrolytic"
SYMBOL cap -32 240 R0
SYMATTR InstName C2
SYMATTR Value 2nF
SYMBOL polcap 80 240 R0
SYMATTR InstName C3
SYMATTR Value 10µ
SYMATTR Description Capacitor
SYMATTR Type cap
SYMATTR SpiceLine V=16 Irms=35m Rser=2.8 Lser=0 mfg="Nichicon" pn="UPR1C100MAH" type="Al electrolytic"
SYMBOL res 160 64 R270
WINDOW 0 32 56 VTop 2
WINDOW 3 0 56 VBottom 2
SYMATTR InstName R1
SYMATTR Value 67k
SYMBOL res 160 320 R270
WINDOW 0 32 56 VTop 2
WINDOW 3 0 56 VBottom 2
SYMATTR InstName R2
SYMATTR Value 100K
SYMBOL res 128 -96 R0
SYMATTR InstName R3
SYMATTR Value 100K
SYMBOL res 128 320 R0
SYMATTR InstName R4
SYMATTR Value 100K
SYMBOL ind -176 208 R270
WINDOW 0 32 56 VTop 2
WINDOW 3 5 56 VBottom 2
SYMATTR InstName L1
SYMATTR Value 83nH
SYMBOL cap -96 272 R90
WINDOW 0 0 32 VBottom 2
WINDOW 3 32 32 VTop 2
SYMATTR InstName C4
SYMATTR Value 50nF
TEXT -8 -64 Left 2 !.tran 0 15 0
TEXT -64 -32 Left 2 !.lib opamp.sub
