Version 4
SHEET 1 1396 788
WIRE -192 80 -432 80
WIRE 432 80 -192 80
WIRE 736 80 432 80
WIRE 432 112 432 80
WIRE -192 176 -192 80
WIRE -144 176 -192 176
WIRE -16 176 -64 176
WIRE 32 176 -16 176
WIRE 160 176 112 176
WIRE 256 176 160 176
WIRE 384 176 320 176
WIRE -432 192 -432 80
WIRE -16 208 -16 176
WIRE 160 208 160 176
WIRE 432 224 432 176
WIRE -432 304 -432 272
WIRE 736 320 736 80
WIRE -16 336 -16 272
WIRE 160 336 160 272
WIRE 160 336 -16 336
WIRE 240 336 160 336
WIRE 432 336 432 304
WIRE 560 336 432 336
WIRE 432 368 -432 368
WIRE 432 400 432 368
WIRE -432 464 -432 368
WIRE -144 464 -432 464
WIRE -16 464 -64 464
WIRE 32 464 -16 464
WIRE 160 464 112 464
WIRE 256 464 160 464
WIRE 384 464 320 464
WIRE -432 496 -432 464
WIRE -16 496 -16 464
WIRE 160 496 160 464
WIRE 432 512 432 464
WIRE 560 512 560 336
WIRE 560 512 432 512
WIRE -16 592 -16 560
WIRE 112 592 -16 592
WIRE 160 592 160 560
WIRE 160 592 112 592
WIRE 240 592 240 336
WIRE 240 592 160 592
WIRE 432 592 240 592
WIRE -432 608 -432 576
WIRE 560 608 560 512
WIRE 112 656 112 592
WIRE 432 752 432 592
WIRE 560 752 560 688
WIRE 560 752 432 752
WIRE 736 752 736 400
WIRE 736 752 560 752
WIRE 112 768 112 736
FLAG -432 304 0
FLAG -432 608 0
FLAG 112 768 0
SYMBOL voltage -432 176 R0
WINDOW 123 0 0 Left 2
WINDOW 39 0 0 Left 2
SYMATTR InstName V1
SYMATTR Value SINE(0 110 60 0 0 0)
SYMBOL Misc\\TRIAC 400 112 R0
SYMATTR InstName U1
SYMATTR Value Z0110M
SYMBOL res 416 208 R0
SYMATTR InstName R1
SYMATTR Value 20
SYMATTR SpiceLine tol=5 pwr=200
SYMBOL cap 144 208 R0
SYMATTR InstName C2
SYMATTR Value 100n
SYMATTR SpiceLine V=25 Irms=0 Rser=0.001 Lser=0
SYMBOL res 128 160 R90
WINDOW 0 0 56 VBottom 2
WINDOW 3 32 56 VTop 2
SYMATTR InstName R3
SYMATTR Value 4k7
SYMBOL Misc\\DIAC 256 208 R270
WINDOW 0 64 32 VTop 2
WINDOW 3 0 32 VBottom 2
SYMATTR InstName U2
SYMBOL cap -32 208 R0
SYMATTR InstName C1
SYMATTR Value 47n
SYMATTR SpiceLine V=25 Irms=0 Rser=0.001 Lser=0
SYMBOL res -48 160 R90
WINDOW 0 0 56 VBottom 2
WINDOW 3 32 56 VTop 2
SYMATTR InstName R2
SYMATTR Value 1k
SYMBOL cap 144 496 R0
SYMATTR InstName C3
SYMATTR Value 100n
SYMATTR SpiceLine V=25 Irms=0 Rser=0.001 Lser=0
SYMBOL res 128 448 R90
WINDOW 0 0 56 VBottom 2
WINDOW 3 32 56 VTop 2
SYMATTR InstName R5
SYMATTR Value 4k7
SYMBOL Misc\\DIAC 256 496 R270
WINDOW 0 64 32 VTop 2
WINDOW 3 0 32 VBottom 2
SYMATTR InstName U3
SYMBOL cap -32 496 R0
SYMATTR InstName C4
SYMATTR Value 47n
SYMATTR SpiceLine V=25 Irms=0 Rser=0.001 Lser=0
SYMBOL res -48 448 R90
WINDOW 0 0 56 VBottom 2
WINDOW 3 32 56 VTop 2
SYMATTR InstName R6
SYMATTR Value 1k
SYMBOL Misc\\TRIAC 400 400 R0
SYMATTR InstName U4
SYMATTR Value Z0110M
SYMBOL voltage -432 480 R0
WINDOW 123 0 0 Left 2
WINDOW 39 0 0 Left 2
SYMATTR InstName V2
SYMATTR Value SINE(0 110 60 0 0 120)
SYMBOL voltage 112 640 R0
WINDOW 123 0 0 Left 2
WINDOW 39 0 0 Left 2
SYMATTR InstName V3
SYMATTR Value SINE(0 110 60 0 0 240)
SYMBOL res 544 592 R0
SYMATTR InstName R4
SYMATTR Value 20
SYMATTR SpiceLine tol=5 pwr=200
SYMBOL res 720 304 R0
SYMATTR InstName R7
SYMATTR Value 20
SYMATTR SpiceLine tol=5 pwr=200
TEXT 592 192 Left 2 !.tran 100m
TEXT 592 144 Left 2 !.lib st_standard_snubberless_triacs.lib
TEXT 592 168 Left 2 !.lib st_diacs.lib
