Version 4
SHEET 1 1936 680
WIRE 1296 -384 1296 -416
WIRE 784 -320 784 -336
WIRE 896 -320 784 -320
WIRE 784 -304 784 -320
WIRE 1072 -304 1072 -336
WIRE -208 -256 -208 -288
WIRE -64 -256 -64 -288
WIRE 896 -256 896 -320
WIRE 1296 -256 1296 -304
WIRE 672 -208 624 -208
WIRE 784 -208 784 -224
WIRE 784 -208 752 -208
WIRE 880 -208 784 -208
WIRE 1072 -208 1072 -224
WIRE 1072 -208 976 -208
WIRE 1120 -208 1072 -208
WIRE 1232 -208 1200 -208
WIRE -208 -144 -208 -176
WIRE -64 -144 -64 -176
WIRE 1296 -112 1296 -160
WIRE -208 -16 -208 -48
WIRE -64 -16 -64 -48
WIRE 1296 48 1296 16
WIRE -208 96 -208 64
WIRE -64 96 -64 64
WIRE 784 112 784 96
WIRE 896 112 784 112
WIRE 784 128 784 112
WIRE 1072 128 1072 96
WIRE 896 176 896 112
WIRE 1296 176 1296 128
WIRE 784 224 784 208
WIRE 784 224 688 224
WIRE 880 224 784 224
WIRE 1072 224 1072 208
WIRE 1072 224 976 224
WIRE 1232 224 1072 224
WIRE 1296 320 1296 272
FLAG -64 96 0
FLAG -64 -48 +3V3
FLAG -64 -144 0
FLAG -64 -288 TX_3
FLAG -208 96 0
FLAG -208 -48 +5V
FLAG -208 -144 0
FLAG -208 -288 TX_5
FLAG 784 -336 +3V3
FLAG 1072 -336 +5V
FLAG 624 -208 TX_3
IOPIN 624 -208 In
FLAG 1296 -416 +5V
FLAG 1296 -112 0
FLAG 784 96 +3V3
FLAG 1072 96 +5V
FLAG 688 224 TX_3
IOPIN 688 224 In
FLAG 1296 16 +5V
FLAG 1296 320 0
SYMBOL voltage -64 -32 R0
WINDOW 123 0 0 Left 2
WINDOW 39 24 124 Left 2
SYMATTR SpiceLine Rser=1m
SYMATTR InstName V1
SYMATTR Value 3.3V
SYMBOL voltage -64 -272 R0
WINDOW 123 0 0 Left 2
WINDOW 39 0 0 Left 2
WINDOW 3 23 94 Left 2
SYMATTR Value PULSE(0 3.3 0 1u 1u 1m 2m)
SYMATTR InstName V2
SYMBOL voltage -208 -32 R0
WINDOW 123 0 0 Left 2
WINDOW 39 24 124 Left 2
SYMATTR SpiceLine Rser=1m
SYMATTR InstName V3
SYMATTR Value 5V
SYMBOL voltage -208 -272 M0
WINDOW 123 0 0 Left 2
WINDOW 39 0 0 Left 2
WINDOW 3 23 94 Left 2
SYMATTR Value PULSE(0 5 0 1u 1u 1m 2m)
SYMATTR InstName V4
SYMBOL res 800 -320 M0
SYMATTR InstName R3
SYMATTR Value 10k
SYMATTR SpiceLine tol=5 pwr=0.25
SYMBOL nmos 976 -256 R90
SYMATTR InstName M2
SYMATTR Value IPP052N06L3
SYMBOL res 1056 -320 R0
SYMATTR InstName R4
SYMATTR Value 10k
SYMATTR SpiceLine tol=5 pwr=0.25
SYMBOL res 656 -224 M90
WINDOW 0 0 56 VBottom 2
WINDOW 3 32 56 VTop 2
SYMATTR InstName R5
SYMATTR Value 1K
SYMATTR SpiceLine tol=5 pwr=0.25
SYMBOL npn 1232 -256 R0
SYMATTR InstName Q1
SYMATTR Value 2N2222
SYMBOL res 1280 -400 R0
SYMATTR InstName R6
SYMATTR Value 10k
SYMATTR SpiceLine tol=5 pwr=0.25
SYMBOL res 800 112 M0
SYMATTR InstName R1
SYMATTR Value 10k
SYMATTR SpiceLine tol=5 pwr=0.25
SYMBOL nmos 976 176 R90
SYMATTR InstName M1
SYMATTR Value IPP052N06L3
SYMBOL res 1056 112 R0
SYMATTR InstName R2
SYMATTR Value 10k
SYMATTR SpiceLine tol=5 pwr=0.25
SYMBOL npn 1232 176 R0
SYMATTR InstName Q2
SYMATTR Value 2N2222
SYMBOL res 1280 32 R0
SYMATTR InstName R8
SYMATTR Value 10k
SYMATTR SpiceLine tol=5 pwr=0.25
SYMBOL res 1216 -224 R90
WINDOW 0 0 56 VBottom 2
WINDOW 3 32 56 VTop 2
SYMATTR InstName R7
SYMATTR Value 10k
SYMATTR SpiceLine tol=5 pwr=0.25
TEXT 40 -264 Left 2 !.tran 0 10m 0
TEXT 784 -184 Left 2 ;source 3
TEXT 984 -184 Left 2 ;drain 1
TEXT 912 -288 Left 2 ;gate 2
TEXT 784 248 Left 2 ;source 3
TEXT 984 248 Left 2 ;drain 1
TEXT 912 144 Left 2 ;gate 2
