Version 4
SHEET 1 1868 1732
WIRE -624 -272 -976 -272
WIRE -272 -272 -624 -272
WIRE -272 -224 -272 -272
WIRE -976 -160 -976 -272
WIRE -880 -160 -976 -160
WIRE -736 -160 -800 -160
WIRE -672 -160 -736 -160
WIRE -544 -160 -592 -160
WIRE -464 -160 -544 -160
WIRE -320 -160 -400 -160
WIRE -736 -128 -736 -160
WIRE -544 -128 -544 -160
WIRE -272 -96 -272 -160
WIRE -144 -96 -272 -96
WIRE -80 -96 -144 -96
WIRE -736 -32 -736 -64
WIRE -640 -32 -736 -32
WIRE -544 -32 -544 -64
WIRE -544 -32 -640 -32
WIRE -992 80 -1344 80
WIRE -640 80 -992 80
WIRE -64 80 -416 80
WIRE 288 80 -64 80
WIRE 816 112 816 64
WIRE 1152 112 1152 64
WIRE 1520 112 1520 64
WIRE -640 128 -640 80
WIRE 288 128 288 80
WIRE -1344 192 -1344 80
WIRE -1248 192 -1344 192
WIRE -1104 192 -1168 192
WIRE -1040 192 -1104 192
WIRE -912 192 -960 192
WIRE -832 192 -912 192
WIRE -688 192 -768 192
WIRE -416 192 -416 80
WIRE -320 192 -416 192
WIRE -176 192 -240 192
WIRE -112 192 -176 192
WIRE 16 192 -32 192
WIRE 96 192 16 192
WIRE 240 192 160 192
WIRE -1104 224 -1104 192
WIRE -912 224 -912 192
WIRE -176 224 -176 192
WIRE 16 224 16 192
WIRE 816 240 816 192
WIRE 1152 240 1152 192
WIRE 1520 240 1520 192
WIRE -640 256 -640 192
WIRE -512 256 -640 256
WIRE -448 256 -512 256
WIRE 288 256 288 192
WIRE 384 256 288 256
WIRE 480 256 384 256
WIRE -1104 320 -1104 288
WIRE -1008 320 -1104 320
WIRE -912 320 -912 288
WIRE -912 320 -1008 320
WIRE -176 320 -176 288
WIRE -80 320 -176 320
WIRE 16 320 16 288
WIRE 16 320 -80 320
FLAG 816 240 0
FLAG 1152 240 0
FLAG 816 64 R
FLAG 1152 64 S
FLAG -64 80 S
FLAG -992 80 R
FLAG 1520 240 0
FLAG 1520 64 T
FLAG 384 256 S1
FLAG -512 256 R1
FLAG -80 320 S1
FLAG -1008 320 R1
FLAG 160 -224 R1
FLAG 160 -144 S1
FLAG 256 -224 S1
FLAG 256 -144 T1
FLAG -624 -272 T
FLAG -144 -96 T1
FLAG -640 -32 T1
FLAG 64 -224 T1
FLAG 64 -144 R1
FLAG 352 -208 T1
FLAG 352 -144 R1
FLAG 512 -208 R1
FLAG 512 -144 S1
FLAG 656 -208 S1
FLAG 656 -144 T1
SYMBOL Misc\\TRIAC 256 128 R0
SYMATTR InstName U1
SYMATTR Value BTA25-600B
SYMBOL Misc\\DIAC 96 224 R270
WINDOW 0 64 32 VTop 2
WINDOW 3 0 32 VBottom 2
SYMATTR InstName U2
SYMATTR Value DB3
SYMBOL cap 0 224 R0
SYMATTR InstName C1
SYMATTR Value 47n
SYMATTR SpiceLine V=400 Irms=0 Rser=0.001 Lser=0
SYMBOL res -16 176 R90
WINDOW 0 0 56 VBottom 2
WINDOW 3 32 56 VTop 2
SYMATTR InstName R2
SYMATTR Value 10k
SYMATTR SpiceLine tol=5 pwr=1
SYMBOL cap -192 224 R0
SYMATTR InstName C2
SYMATTR Value 86n
SYMATTR SpiceLine V=400 Irms=0 Rser=0.001 Lser=0
SYMBOL res -224 176 R90
WINDOW 0 0 56 VBottom 2
WINDOW 3 32 56 VTop 2
SYMATTR InstName R3
SYMATTR Value 1k
SYMATTR SpiceLine tol=5 pwr=1
SYMBOL voltage 816 96 R0
WINDOW 123 0 0 Left 2
WINDOW 39 0 0 Left 2
SYMATTR InstName V2
SYMATTR Value SINE(0 179.61 60 0 0 0)
SYMBOL voltage 1152 96 R0
WINDOW 123 0 0 Left 2
WINDOW 39 0 0 Left 2
SYMATTR InstName V3
SYMATTR Value SINE(0 179.61 60 0 0 120)
SYMBOL Misc\\TRIAC -672 128 R0
SYMATTR InstName U3
SYMATTR Value BTA25-600B
SYMBOL Misc\\DIAC -832 224 R270
WINDOW 0 64 32 VTop 2
WINDOW 3 0 32 VBottom 2
SYMATTR InstName U4
SYMATTR Value DB3
SYMBOL cap -928 224 R0
SYMATTR InstName C3
SYMATTR Value 47n
SYMATTR SpiceLine V=400 Irms=0 Rser=0.001 Lser=0
SYMBOL res -944 176 R90
WINDOW 0 0 56 VBottom 2
WINDOW 3 32 56 VTop 2
SYMATTR InstName R1
SYMATTR Value 10k
SYMATTR SpiceLine tol=5 pwr=1
SYMBOL cap -1120 224 R0
SYMATTR InstName C4
SYMATTR Value 86n
SYMATTR SpiceLine V=400 Irms=0 Rser=0.001 Lser=0
SYMBOL res -1152 176 R90
WINDOW 0 0 56 VBottom 2
WINDOW 3 32 56 VTop 2
SYMATTR InstName R4
SYMATTR Value 1k
SYMATTR SpiceLine tol=5 pwr=1
SYMBOL voltage 1520 96 R0
WINDOW 123 0 0 Left 2
WINDOW 39 0 0 Left 2
SYMATTR InstName V1
SYMATTR Value SINE(0 179.61 60 0 0 240)
SYMBOL Misc\\TRIAC -304 -224 R0
SYMATTR InstName U5
SYMATTR Value BTA25-600B
SYMBOL Misc\\DIAC -464 -128 R270
WINDOW 0 64 32 VTop 2
WINDOW 3 0 32 VBottom 2
SYMATTR InstName U6
SYMATTR Value DB3
SYMBOL cap -560 -128 R0
SYMATTR InstName C5
SYMATTR Value 47n
SYMATTR SpiceLine V=400 Irms=0 Rser=0.001 Lser=0
SYMBOL res -576 -176 R90
WINDOW 0 0 56 VBottom 2
WINDOW 3 32 56 VTop 2
SYMATTR InstName R7
SYMATTR Value 10k
SYMATTR SpiceLine tol=5 pwr=1
SYMBOL cap -752 -128 R0
SYMATTR InstName C6
SYMATTR Value 86n
SYMATTR SpiceLine V=400 Irms=0 Rser=0.001 Lser=0
SYMBOL res -784 -176 R90
WINDOW 0 0 56 VBottom 2
WINDOW 3 32 56 VTop 2
SYMATTR InstName R8
SYMATTR Value 1k
SYMATTR SpiceLine tol=5 pwr=1
SYMBOL varactor 336 -208 R0
WINDOW 3 41 42 Left 2
SYMATTR InstName D1
SYMATTR Value MV2201
SYMBOL varactor 496 -208 R0
WINDOW 3 41 42 Left 2
SYMATTR InstName D2
SYMATTR Value MV2201
SYMBOL varactor 640 -208 R0
WINDOW 3 41 42 Left 2
SYMATTR InstName D3
SYMATTR Value MV2201
SYMBOL ind 48 -240 R0
SYMATTR InstName L3
SYMATTR Value 60mH
SYMATTR SpiceLine Ipk=13 Rser=20
SYMBOL ind 144 -240 R0
SYMATTR InstName L1
SYMATTR Value 60mH
SYMATTR SpiceLine Ipk=13 Rser=20
SYMBOL ind 240 -240 R0
SYMATTR InstName L2
SYMATTR Value 60mH
SYMATTR SpiceLine Ipk=13 Rser=20
TEXT 136 8 Left 2 !.lib st_diacs.lib
TEXT 136 48 Left 2 !.tran 0 100m 0
TEXT 136 -24 Left 2 !.lib st_standard_snubberless_triacs.lib
