Version 4
SHEET 1 956 680
WIRE 192 -64 48 -64
WIRE 192 -32 192 -64
WIRE 48 16 48 -64
WIRE 192 96 192 48
WIRE 48 128 48 96
WIRE 144 176 48 176
WIRE 48 224 48 176
WIRE 192 240 192 192
WIRE 48 336 48 304
FLAG 192 240 0
FLAG 48 128 0
FLAG 48 336 0
SYMBOL res 176 -48 R0
SYMATTR InstName R1
SYMATTR Value 10
SYMBOL voltage 48 0 R0
WINDOW 123 0 0 Left 2
WINDOW 39 0 0 Left 2
SYMATTR InstName V1
SYMATTR Value 150
SYMBOL voltage 48 208 R0
WINDOW 123 0 0 Left 2
WINDOW 39 0 0 Left 2
SYMATTR InstName V2
SYMATTR Value 20
SYMBOL Misc\\nigbt 144 96 R0
SYMATTR InstName U1
SYMATTR Value IKX15N60T_L2
TEXT 344 16 Left 2 !.dc V2 20 -20 0.1
TEXT 344 48 Left 2 !.lib D:\\workspace\\sim\\lib\\IK_GXXXN60T_L2.lib
