Version 4
SHEET 1 880 680
WIRE 304 64 176 64
WIRE 0 112 -32 112
WIRE 112 112 80 112
WIRE 176 192 176 160
WIRE 0 240 -32 240
WIRE 112 240 80 240
WIRE 176 320 176 288
FLAG 304 144 0
FLAG 176 400 0
FLAG -32 320 0
FLAG -32 192 0
SYMBOL npn 112 64 R0
SYMATTR InstName Q1
SYMATTR Value BC337-25
SYMBOL npn 112 192 R0
SYMATTR InstName Q2
SYMATTR Value BC337-25
SYMBOL voltage 304 48 R0
WINDOW 123 0 0 Left 2
WINDOW 39 24 124 Left 2
SYMATTR InstName V1
SYMATTR Value 5V
SYMATTR SpiceLine Rser=1m
SYMBOL res 96 96 R90
WINDOW 0 0 56 VBottom 2
WINDOW 3 32 56 VTop 2
SYMATTR InstName R1
SYMATTR Value 200k
SYMBOL res 96 224 R90
WINDOW 0 0 56 VBottom 2
WINDOW 3 32 56 VTop 2
SYMATTR InstName R2
SYMATTR Value 200k
SYMBOL res 160 304 R0
SYMATTR InstName R3
SYMATTR Value 10k
SYMBOL voltage -32 224 M0
WINDOW 123 0 0 Left 2
WINDOW 39 24 124 Left 2
SYMATTR InstName V2
SYMATTR Value PULSE(0 5 0 1n 1n 5m 10m)
SYMATTR SpiceLine Rser=1m
SYMBOL voltage -32 96 M0
WINDOW 123 0 0 Left 2
WINDOW 39 24 124 Left 2
SYMATTR InstName V3
SYMATTR Value PULSE(0 5 0 1n 1n 10m 20m)
SYMATTR SpiceLine Rser=1m
TEXT -426 424 Left 2 !.tran 0 40m 0
