Version 4
SHEET 1 1244 680
WIRE -16 48 -16 16
WIRE 320 80 288 80
WIRE 416 80 400 80
WIRE 560 128 528 128
WIRE 656 128 640 128
WIRE -16 144 -16 128
WIRE -16 144 -64 144
WIRE -64 160 -64 144
WIRE -16 160 -16 144
WIRE 112 176 48 176
WIRE 160 176 112 176
WIRE 288 176 288 80
WIRE 288 176 240 176
WIRE 320 176 288 176
WIRE 416 192 416 80
WIRE 416 192 384 192
WIRE 432 192 416 192
WIRE 528 192 528 128
WIRE 528 192 512 192
WIRE 320 208 288 208
WIRE 288 224 288 208
WIRE 528 240 528 192
WIRE 560 240 528 240
WIRE 656 240 656 128
WIRE 704 240 656 240
WIRE 112 256 112 176
WIRE 656 256 656 240
WIRE 656 256 624 256
WIRE -16 272 -16 240
WIRE 560 272 528 272
WIRE 320 304 288 304
WIRE 416 304 400 304
WIRE 432 304 416 304
WIRE 528 304 528 272
WIRE 528 304 512 304
WIRE 528 320 528 304
WIRE 48 352 48 176
WIRE 48 352 -16 352
WIRE 704 352 704 320
WIRE -16 384 -16 352
WIRE 112 400 112 336
WIRE 160 400 112 400
WIRE 288 400 288 304
WIRE 288 400 240 400
WIRE 320 400 288 400
WIRE 416 416 416 304
WIRE 416 416 384 416
WIRE 112 432 112 400
WIRE 320 432 288 432
WIRE 528 432 528 400
WIRE 288 448 288 432
WIRE -16 496 -16 464
WIRE 112 544 112 496
FLAG -64 160 0
FLAG -16 16 +V
FLAG 352 160 +V
FLAG 288 224 0
FLAG -16 272 -V
FLAG 352 224 -V
FLAG 352 384 +V
FLAG 288 448 0
FLAG 352 448 -V
FLAG -16 496 0
FLAG 112 544 0
FLAG 592 224 +V
FLAG 592 288 -V
FLAG 528 432 0
FLAG 704 352 0
SYMBOL voltage -16 32 R0
WINDOW 123 0 0 Left 2
WINDOW 39 0 0 Left 2
SYMATTR InstName V1
SYMATTR Value 30V
SYMATTR Value2 ""
SYMATTR SpiceLine ""
SYMBOL Opamps\\UniversalOpamp2 352 192 R0
SYMATTR InstName U1
SYMBOL res 256 160 R90
WINDOW 0 0 56 VBottom 2
WINDOW 3 32 56 VTop 2
SYMATTR InstName R1
SYMATTR Value 20k
SYMBOL res 416 64 R90
WINDOW 0 0 56 VBottom 2
WINDOW 3 32 56 VTop 2
SYMATTR InstName R2
SYMATTR Value 5meg
SYMBOL voltage -16 144 R0
WINDOW 123 0 0 Left 2
WINDOW 39 0 0 Left 2
SYMATTR InstName V3
SYMATTR Value 30V
SYMATTR Value2 ""
SYMATTR SpiceLine ""
SYMBOL Opamps\\UniversalOpamp2 352 416 R0
SYMATTR InstName U2
SYMBOL res 256 384 R90
WINDOW 0 0 56 VBottom 2
WINDOW 3 32 56 VTop 2
SYMATTR InstName R3
SYMATTR Value 20k
SYMBOL res 416 288 R90
WINDOW 0 0 56 VBottom 2
WINDOW 3 32 56 VTop 2
SYMATTR InstName R4
SYMATTR Value 5meg
SYMBOL voltage -16 368 R0
WINDOW 3 232 152 Left 2
WINDOW 123 0 0 Left 2
WINDOW 39 0 0 Left 2
SYMATTR InstName V2
SYMATTR Value SINE(0 0.1 1k 0 0 0 0)
SYMATTR Value2 ""
SYMATTR SpiceLine ""
SYMBOL res 128 352 R180
WINDOW 0 36 76 Left 2
WINDOW 3 36 40 Left 2
SYMATTR InstName R5
SYMATTR Value 100
SYMATTR SpiceLine ""
SYMBOL cap 96 432 R0
SYMATTR InstName C1
SYMATTR Value 0.5nF
SYMBOL Opamps\\UniversalOpamp2 592 256 R0
SYMATTR InstName U3
SYMBOL res 544 144 R270
WINDOW 0 32 56 VTop 2
WINDOW 3 0 56 VBottom 2
SYMATTR InstName R6
SYMATTR Value 20k
SYMBOL res 416 208 R270
WINDOW 0 32 56 VTop 2
WINDOW 3 0 56 VBottom 2
SYMATTR InstName R7
SYMATTR Value 20k
SYMBOL res 416 320 R270
WINDOW 0 32 56 VTop 2
WINDOW 3 0 56 VBottom 2
SYMATTR InstName R8
SYMATTR Value 20k
SYMBOL res 512 304 R0
SYMATTR InstName R9
SYMATTR Value 20k
SYMBOL res 688 224 R0
SYMATTR InstName R10
SYMATTR Value 10k
TEXT 126 -8 Left 2 !.tran 0 30m 0
TEXT -88 -64 Left 2 !.lib "C:\\Program Files (x86)\\LTC\\LTspiceIV\\lib\\sub\\opamp.sub"
