Version 4
SHEET 1 880 680
WIRE 192 32 0 32
WIRE 192 96 192 32
WIRE 0 112 0 32
WIRE 144 176 96 176
WIRE 0 224 0 192
WIRE 192 240 192 192
WIRE 96 272 96 176
WIRE 96 272 0 272
WIRE 0 320 0 272
WIRE 192 368 192 320
WIRE 0 432 0 400
WIRE 96 448 96 272
WIRE 144 448 96 448
WIRE 192 496 192 464
FLAG 192 496 0
FLAG 0 224 0
FLAG 0 432 0
SYMBOL res 176 224 R0
SYMATTR InstName R1
SYMATTR Value 10
SYMBOL voltage 0 96 R0
WINDOW 123 0 0 Left 2
WINDOW 39 0 0 Left 2
SYMATTR InstName V1
SYMATTR Value 100
SYMBOL voltage 0 304 R0
WINDOW 123 0 0 Left 2
WINDOW 39 0 0 Left 2
SYMATTR InstName V2
SYMATTR Value 100
SYMBOL Misc\\nigbt 144 96 R0
SYMATTR InstName U1
SYMATTR Value IXGT30N60B2
SYMBOL Misc\\nigbt 144 368 R0
SYMATTR InstName U2
SYMATTR Value IXGT30N60B2
TEXT 344 16 Left 2 !.tran 0 60m 0
TEXT 352 40 Left 2 !.inc D:\\Sim\\lib\\IXGH30N60B2.lib
