Version 4
SHEET 1 880 680
WIRE -512 -96 -512 -128
WIRE 192 -80 160 -80
WIRE 304 -80 272 -80
WIRE -512 16 -512 -16
WIRE -512 16 -576 16
WIRE -336 16 -336 -16
WIRE -576 48 -576 16
WIRE -512 48 -512 16
WIRE 48 64 16 64
WIRE 160 64 160 -80
WIRE 160 64 128 64
WIRE 192 64 160 64
WIRE 304 80 304 -80
WIRE 304 80 256 80
WIRE 192 96 128 96
WIRE 368 96 368 80
WIRE 128 144 128 96
WIRE -512 176 -512 128
WIRE 368 176 368 160
FLAG -512 -128 +VCC
FLAG -512 176 -VCC
FLAG -576 48 0
FLAG 224 112 0
FLAG 224 48 +VCC
FLAG 128 144 0
FLAG 16 64 Vin
FLAG -336 16 0
FLAG -336 -96 Vin
FLAG 368 176 0
SYMBOL Opamps\\UniversalOpamp2 224 80 R0
SYMATTR InstName U1
SYMBOL voltage -512 -112 R0
WINDOW 123 0 0 Left 2
WINDOW 39 24 124 Left 2
SYMATTR SpiceLine Rser=1m
SYMATTR InstName V1
SYMATTR Value 20
SYMBOL voltage -512 32 R0
WINDOW 123 0 0 Left 2
WINDOW 39 24 124 Left 2
SYMATTR SpiceLine Rser=1m
SYMATTR InstName V2
SYMATTR Value 5
SYMBOL res 176 -64 R270
WINDOW 0 32 56 VTop 2
WINDOW 3 0 56 VBottom 2
SYMATTR InstName R1
SYMATTR Value 305.36k
SYMBOL res 32 80 R270
WINDOW 0 32 56 VTop 2
WINDOW 3 0 56 VBottom 2
SYMATTR InstName R2
SYMATTR Value 22k
SYMBOL voltage -336 -112 R0
WINDOW 123 0 0 Left 2
WINDOW 39 24 124 Left 2
SYMATTR SpiceLine Rser=1m
SYMATTR InstName V3
SYMATTR Value SINE(0 160mV 60 0 0 0)
SYMBOL cap 352 96 R0
SYMATTR InstName C1
SYMATTR Value 100n
SYMATTR SpiceLine V=100V Irms=0 Rser=0.002 Lser=0
SYMBOL diode 304 96 R270
WINDOW 0 32 32 VTop 2
WINDOW 3 0 32 VBottom 2
SYMATTR InstName D1
SYMATTR Value 1N4148
TEXT -576 296 Left 2 !.tran 1
