Version 4
SHEET 1 880 680
WIRE -176 -112 -208 -112
WIRE -64 -112 -96 -112
WIRE -512 -96 -512 -128
WIRE -320 32 -352 32
WIRE -208 32 -208 -112
WIRE -208 32 -240 32
WIRE -176 32 -208 32
WIRE -352 48 -352 32
WIRE -64 48 -64 -112
WIRE -64 48 -112 48
WIRE -176 64 -208 64
WIRE -576 160 -576 128
FLAG -512 -128 +VCC
FLAG -576 -64 -VCC
FLAG -512 -16 0
FLAG -144 16 +VCC
FLAG -576 160 0
FLAG -576 48 Vin
FLAG -208 64 Vin
FLAG -352 48 0
FLAG -144 80 0
FLAG -576 -144 0
SYMBOL Opamps\\UniversalOpamp2 -144 48 R0
SYMATTR InstName U1
SYMBOL voltage -512 -112 R0
WINDOW 123 0 0 Left 2
WINDOW 39 24 124 Left 2
SYMATTR SpiceLine Rser=1m
SYMATTR InstName V1
SYMATTR Value 5V
SYMBOL voltage -576 -160 M0
WINDOW 123 0 0 Left 2
WINDOW 39 24 124 Left 2
SYMATTR SpiceLine Rser=1m
SYMATTR InstName V2
SYMATTR Value 5V
SYMBOL res -192 -96 R270
WINDOW 0 32 56 VTop 2
WINDOW 3 0 56 VBottom 2
SYMATTR InstName R1
SYMATTR Value 200k
SYMBOL res -336 48 R270
WINDOW 0 32 56 VTop 2
WINDOW 3 0 56 VBottom 2
SYMATTR InstName R2
SYMATTR Value 20k
SYMBOL voltage -576 32 R0
WINDOW 123 0 0 Left 2
WINDOW 39 24 124 Left 2
SYMATTR SpiceLine Rser=1m
SYMATTR InstName V3
SYMATTR Value SINE(0 100mV 60 0 0 0)
TEXT -392 160 Left 2 !.tran 100m
