Version 4
SHEET 1 880 680
WIRE -144 96 -176 96
WIRE -32 96 -64 96
WIRE -576 128 -608 128
WIRE -464 128 -496 128
WIRE -464 224 -464 128
WIRE -608 240 -608 128
WIRE -608 240 -640 240
WIRE -288 240 -336 240
WIRE -176 240 -176 96
WIRE -176 240 -208 240
WIRE -144 240 -176 240
WIRE -32 256 -32 96
WIRE -32 256 -80 256
WIRE -608 272 -608 240
WIRE -576 272 -608 272
WIRE -144 272 -176 272
WIRE -464 288 -464 224
WIRE -464 288 -512 288
WIRE -336 288 -336 240
WIRE -576 304 -608 304
WIRE -608 320 -608 304
WIRE -288 400 -288 352
WIRE -176 400 -176 272
WIRE -176 400 -288 400
WIRE -288 432 -288 400
FLAG -480 -144 +VCC
FLAG -576 -64 -VCC
FLAG -480 -64 0
FLAG -112 224 +VCC
FLAG -336 -64 0
FLAG -336 -144 Vin1
FLAG -576 -144 0
FLAG -336 288 0
FLAG -368 432 Vin2
FLAG -544 256 +VCC
FLAG -720 240 Vin1
FLAG -544 320 -VCC
FLAG -464 224 A
FLAG -368 352 A
FLAG -112 288 -VCC
FLAG -736 -64 0
FLAG -736 -144 Vin2
FLAG -608 320 0
SYMBOL Opamps\\UniversalOpamp2 -112 256 R0
SYMATTR InstName U1
SYMBOL voltage -480 -160 R0
WINDOW 123 0 0 Left 2
SYMATTR SpiceLine Rser=1m
SYMATTR InstName V1
SYMATTR Value 15V
SYMBOL voltage -576 -160 M0
WINDOW 123 0 0 Left 2
SYMATTR SpiceLine Rser=1m
SYMATTR InstName V2
SYMATTR Value 15V
SYMBOL res -160 112 R270
WINDOW 0 32 56 VTop 2
WINDOW 3 0 56 VBottom 2
SYMATTR InstName R1
SYMATTR Value 22K
SYMATTR SpiceLine tol=1 pwr=0.1
SYMBOL voltage -336 -160 R0
WINDOW 123 0 0 Left 2
SYMATTR SpiceLine Rser=1m
SYMATTR InstName V3
SYMATTR Value SINE(0 100mV 60 0 0 0)
SYMBOL Opamps\\UniversalOpamp2 -544 288 R0
SYMATTR InstName U2
SYMBOL res -592 144 R270
WINDOW 0 32 56 VTop 2
WINDOW 3 0 56 VBottom 2
SYMATTR InstName R5
SYMATTR Value 80k
SYMATTR SpiceLine tol=1 pwr=0.1
SYMBOL res -304 256 R270
WINDOW 0 32 56 VTop 2
WINDOW 3 0 56 VBottom 2
SYMATTR InstName R2
SYMATTR Value 22K
SYMATTR SpiceLine tol=1 pwr=0.1
SYMBOL res -384 368 R270
WINDOW 0 32 56 VTop 2
WINDOW 3 0 56 VBottom 2
SYMATTR InstName R3
SYMATTR Value 22K
SYMATTR SpiceLine tol=1 pwr=0.1
SYMBOL res -384 448 R270
WINDOW 0 32 56 VTop 2
WINDOW 3 0 56 VBottom 2
SYMATTR InstName R4
SYMATTR Value 22K
SYMATTR SpiceLine tol=1 pwr=0.1
SYMBOL res -736 256 R270
WINDOW 0 32 56 VTop 2
WINDOW 3 0 56 VBottom 2
SYMATTR InstName R6
SYMATTR Value 22K
SYMATTR SpiceLine tol=1 pwr=0.1
SYMBOL voltage -736 -160 M0
WINDOW 123 0 0 Left 2
SYMATTR SpiceLine Rser=1m
SYMATTR InstName V4
SYMATTR Value 5V
TEXT 96 -168 Left 2 !.tran 100m
