Version 4
SHEET 1 880 680
WIRE 688 -96 688 -112
WIRE 448 -32 448 -48
WIRE 64 -16 64 -48
WIRE 688 0 688 -16
WIRE 784 0 688 0
WIRE 688 16 688 0
WIRE 208 32 208 16
WIRE 448 64 448 48
WIRE 480 64 448 64
WIRE 496 64 480 64
WIRE 624 64 576 64
WIRE 64 80 64 64
WIRE 448 80 448 64
WIRE 480 112 480 64
WIRE 512 112 480 112
WIRE 208 128 208 112
WIRE 240 128 208 128
WIRE 256 128 240 128
WIRE 384 128 336 128
WIRE 208 144 208 128
WIRE 688 144 688 112
WIRE 16 192 -32 192
WIRE 144 192 96 192
WIRE 240 192 240 128
WIRE 288 192 240 192
WIRE 784 192 784 0
WIRE 784 192 688 192
WIRE 448 208 448 176
WIRE 512 208 512 112
WIRE 288 224 288 192
WIRE 688 224 688 192
WIRE 208 272 208 240
WIRE 512 304 512 272
WIRE 288 320 288 288
WIRE 688 320 688 288
WIRE -32 368 -32 192
WIRE 784 368 784 192
WIRE 784 368 -32 368
FLAG 64 80 0
FLAG 208 272 0
FLAG 64 -48 +5V
FLAG 208 16 +5V
FLAG 448 208 0
FLAG 448 -48 +5V
FLAG 688 144 0
FLAG 688 -112 +5V
FLAG 688 320 0
FLAG 512 304 0
FLAG 288 320 0
SYMBOL npn 144 144 R0
SYMATTR InstName Q1
SYMATTR Value 2N2222
SYMBOL res 192 16 R0
SYMATTR InstName R1
SYMATTR Value 10K
SYMBOL res 112 176 R90
WINDOW 0 0 56 VBottom 2
WINDOW 3 32 56 VTop 2
SYMATTR InstName R2
SYMATTR Value 20k
SYMBOL voltage 64 -32 R0
SYMATTR InstName V1
SYMATTR Value +5V
SYMBOL npn 384 80 R0
SYMATTR InstName Q2
SYMATTR Value 2N2222
SYMBOL res 432 -48 R0
SYMATTR InstName R3
SYMATTR Value 10K
SYMBOL res 352 112 R90
WINDOW 0 0 56 VBottom 2
WINDOW 3 32 56 VTop 2
SYMATTR InstName R4
SYMATTR Value 20k
SYMBOL npn 624 16 R0
SYMATTR InstName Q3
SYMATTR Value 2N2222
SYMBOL res 672 -112 R0
SYMATTR InstName R5
SYMATTR Value 10K
SYMBOL res 592 48 R90
WINDOW 0 0 56 VBottom 2
WINDOW 3 32 56 VTop 2
SYMATTR InstName R6
SYMATTR Value 20k
SYMBOL cap 672 224 R0
SYMATTR InstName C1
SYMATTR Value 1µ
SYMATTR SpiceLine V=100 Irms=4.58 Rser=0.025 Lser=0 mfg="KEMET" pn="C2225C105K1RAC" type="X7R"
SYMBOL cap 496 208 R0
SYMATTR InstName C2
SYMATTR Value 1µ
SYMATTR SpiceLine V=100 Irms=4.58 Rser=0.025 Lser=0 mfg="KEMET" pn="C2225C105K1RAC" type="X7R"
SYMBOL cap 272 224 R0
SYMATTR InstName C3
SYMATTR Value 1µ
SYMATTR SpiceLine V=100 Irms=4.58 Rser=0.025 Lser=0 mfg="KEMET" pn="C2225C105K1RAC" type="X7R"
TEXT 238 -144 Left 2 !.tran 0 1 0
