Version 4
SHEET 1 1852 684
WIRE 352 -208 256 -208
WIRE 528 -208 352 -208
WIRE 528 -144 528 -208
WIRE 256 -112 256 -128
WIRE 352 -96 352 -128
WIRE 368 -96 352 -96
WIRE 464 -96 448 -96
WIRE 352 -64 352 -96
WIRE 176 -16 144 -16
WIRE 288 -16 256 -16
WIRE 528 0 528 -48
WIRE 352 64 352 32
WIRE 144 80 144 64
WIRE 528 96 528 80
WIRE 336 192 192 192
WIRE 128 240 80 240
WIRE 336 288 336 272
WIRE 192 304 192 288
WIRE 80 336 80 320
WIRE 192 400 192 368
WIRE 288 400 192 400
WIRE 512 400 432 400
WIRE 192 416 192 400
WIRE 80 432 80 416
WIRE 512 432 512 400
WIRE 192 512 192 496
WIRE 512 528 512 512
FLAG 192 512 0
FLAG 80 432 0
FLAG 336 288 0
FLAG 512 528 0
FLAG 528 96 0
FLAG 144 80 0
FLAG 256 -112 0
FLAG 352 64 0
SYMBOL diode 176 304 R0
SYMATTR InstName D1
SYMATTR Value 1N4148
SYMBOL diode 352 416 M270
WINDOW 0 32 32 VTop 2
WINDOW 3 0 32 VBottom 2
SYMATTR InstName D2
SYMATTR Value 1N4148
SYMBOL res 176 400 R0
SYMATTR InstName R1
SYMATTR Value 80
SYMBOL res 336 384 M90
WINDOW 0 0 56 VBottom 2
WINDOW 3 32 56 VTop 2
SYMATTR InstName R2
SYMATTR Value 100
SYMBOL voltage 80 320 M0
WINDOW 39 24 124 Left 2
SYMATTR InstName V1
SYMATTR Value PULSE(0 3.3 0 100n 100n 2.5u 5u)
SYMATTR Value2 AC 5V 0
SYMATTR SpiceLine Rser=1m
SYMBOL res 64 224 R0
SYMATTR InstName R4
SYMATTR Value 1k
SYMATTR SpiceLine tol=5 pwr=0.25
SYMBOL voltage 336 176 R0
WINDOW 123 0 0 Left 2
WINDOW 39 24 124 Left 2
SYMATTR InstName V3
SYMATTR Value 8V
SYMATTR SpiceLine Rser=1m
SYMBOL pnp 128 288 M180
SYMATTR InstName Q1
SYMATTR Value BC557B
SYMBOL voltage 512 416 M0
WINDOW 3 -424 23 Left 2
WINDOW 39 -135 60 Left 2
SYMATTR InstName V2
SYMATTR Value PULSE(0 3.3 2.5u 100n 100n 2.5u 5u)
SYMATTR Value2 AC 5V 0
SYMATTR SpiceLine Rser=1m
SYMBOL res 512 -16 R0
SYMATTR InstName R3
SYMATTR Value 80
SYMBOL voltage 144 -32 M0
WINDOW 39 24 124 Left 2
SYMATTR InstName V4
SYMATTR Value PULSE(0 3.3 0 100n 100n 10u 20u)
SYMATTR Value2 AC 5V 0
SYMATTR SpiceLine Rser=1m
SYMBOL res 464 -112 R90
WINDOW 0 0 56 VBottom 2
WINDOW 3 32 56 VTop 2
SYMATTR InstName R5
SYMATTR Value 1k
SYMATTR SpiceLine tol=5 pwr=0.25
SYMBOL voltage 256 -224 M0
WINDOW 123 0 0 Left 2
WINDOW 39 24 124 Left 2
SYMATTR InstName V5
SYMATTR Value 8V
SYMATTR SpiceLine Rser=1m
SYMBOL pnp 464 -48 M180
SYMATTR InstName Q2
SYMATTR Value BC557B
SYMBOL res 368 -224 M0
SYMATTR InstName R6
SYMATTR Value 10k
SYMBOL npn 288 -64 R0
SYMATTR InstName Q3
SYMATTR Value BC337-25
SYMBOL res 160 0 R270
WINDOW 0 32 56 VTop 2
WINDOW 3 0 56 VBottom 2
SYMATTR InstName R7
SYMATTR Value 10k
SYMATTR SpiceLine tol=5 pwr=0.25
TEXT 504 272 Left 2 !.tran 0 60u 0
