Version 4
SHEET 1 1816 1108
WIRE -64 80 -416 80
WIRE 288 80 -64 80
WIRE 816 112 816 64
WIRE 288 128 288 80
WIRE -416 192 -416 80
WIRE -320 192 -416 192
WIRE -176 192 -240 192
WIRE -112 192 -176 192
WIRE 16 192 -32 192
WIRE 96 192 16 192
WIRE 240 192 160 192
WIRE -176 224 -176 192
WIRE 16 224 16 192
WIRE 816 240 816 192
WIRE 288 256 288 192
WIRE 480 256 288 256
WIRE -176 320 -176 288
WIRE 16 320 16 288
WIRE 816 352 816 304
WIRE 480 384 480 256
WIRE -80 448 -432 448
WIRE 272 448 -80 448
WIRE 816 480 816 432
WIRE 272 496 272 448
WIRE -432 560 -432 448
WIRE -336 560 -432 560
WIRE -192 560 -256 560
WIRE -128 560 -192 560
WIRE 0 560 -48 560
WIRE 80 560 0 560
WIRE 224 560 144 560
WIRE -192 592 -192 560
WIRE 0 592 0 560
WIRE 272 624 272 560
WIRE 480 624 480 464
WIRE 480 624 272 624
WIRE -192 688 -192 656
WIRE 0 688 0 656
FLAG 816 240 0
FLAG 816 480 0
FLAG 816 64 R
FLAG 816 304 S
FLAG -64 80 R
FLAG -80 448 S
FLAG 0 688 0
FLAG -192 688 0
FLAG -176 320 0
FLAG 16 320 0
SYMBOL Misc\\TRIAC 256 128 R0
SYMATTR InstName U1
SYMATTR Value BTA25-600B
SYMBOL Misc\\DIAC 96 224 R270
WINDOW 0 64 32 VTop 2
WINDOW 3 0 32 VBottom 2
SYMATTR InstName U2
SYMATTR Value DB3
SYMBOL cap 0 224 R0
SYMATTR InstName C1
SYMATTR Value 47n
SYMATTR SpiceLine V=400 Irms=0 Rser=0.001 Lser=0
SYMBOL res -16 176 R90
WINDOW 0 0 56 VBottom 2
WINDOW 3 32 56 VTop 2
SYMATTR InstName R2
SYMATTR Value 5k6
SYMATTR SpiceLine tol=5 pwr=1
SYMBOL cap -192 224 R0
SYMATTR InstName C2
SYMATTR Value 100n
SYMATTR SpiceLine V=400 Irms=0 Rser=0.001 Lser=0
SYMBOL res -224 176 R90
WINDOW 0 0 56 VBottom 2
WINDOW 3 32 56 VTop 2
SYMATTR InstName R3
SYMATTR Value 10k
SYMATTR SpiceLine tol=5 pwr=1
SYMBOL voltage 816 96 R0
WINDOW 123 0 0 Left 2
WINDOW 39 0 0 Left 2
SYMATTR InstName V2
SYMATTR Value SINE(0 178 60 0 0 0)
SYMBOL voltage 816 336 R0
WINDOW 123 0 0 Left 2
WINDOW 39 0 0 Left 2
SYMATTR InstName V3
SYMATTR Value SINE(0 178 60 0 0 120)
SYMBOL Misc\\TRIAC 240 496 R0
SYMATTR InstName U3
SYMATTR Value BTA25-600B
SYMBOL Misc\\DIAC 80 592 R270
WINDOW 0 64 32 VTop 2
WINDOW 3 0 32 VBottom 2
SYMATTR InstName U4
SYMATTR Value DB3
SYMBOL cap -16 592 R0
SYMATTR InstName C3
SYMATTR Value 47n
SYMATTR SpiceLine V=400 Irms=0 Rser=0.001 Lser=0
SYMBOL res -32 544 R90
WINDOW 0 0 56 VBottom 2
WINDOW 3 32 56 VTop 2
SYMATTR InstName R4
SYMATTR Value 5k6
SYMATTR SpiceLine tol=5 pwr=1
SYMBOL cap -208 592 R0
SYMATTR InstName C4
SYMATTR Value 100n
SYMATTR SpiceLine V=400 Irms=0 Rser=0.001 Lser=0
SYMBOL ind 464 368 R0
SYMATTR InstName L1
SYMATTR Value 60mH
SYMATTR SpiceLine Ipk=100 Rser=20
SYMBOL res -240 544 R90
WINDOW 0 0 56 VBottom 2
WINDOW 3 32 56 VTop 2
SYMATTR InstName R1
SYMATTR Value 10k
SYMATTR SpiceLine tol=5 pwr=1
TEXT 136 8 Left 2 !.lib C:\\Users\\cuki\\Desktop\\st_standard_snubberless_triacs.lib
TEXT 136 48 Left 2 !.tran 0 100m 0
TEXT 136 -24 Left 2 !.lib C:\\Users\\cuki\\Desktop\\st_diacs.lib
