Version 4
SHEET 1 880 680
WIRE 544 -96 32 -96
WIRE 704 -96 624 -96
WIRE 768 -32 768 -48
WIRE -128 -16 -176 -16
WIRE -32 -16 -64 -16
WIRE 448 0 80 0
WIRE 384 16 0 16
WIRE -176 32 -176 -16
WIRE 112 80 64 80
WIRE 448 80 448 0
WIRE 448 80 336 80
WIRE 576 80 576 48
WIRE 576 80 448 80
WIRE -176 144 -176 112
WIRE -128 144 -176 144
WIRE 0 144 0 16
WIRE 0 144 -48 144
WIRE 112 144 0 144
WIRE 576 160 576 80
WIRE 704 160 704 112
WIRE -176 176 -176 144
WIRE -32 208 -32 -16
WIRE 32 208 32 -96
WIRE 32 208 -32 208
WIRE 112 208 32 208
WIRE 384 208 384 16
WIRE 384 208 336 208
WIRE 448 208 448 80
WIRE 704 256 704 224
WIRE 0 272 0 144
WIRE 80 272 80 0
WIRE 112 272 80 272
WIRE 384 272 336 272
WIRE -176 288 -176 256
WIRE -112 288 -176 288
WIRE -32 288 -32 208
WIRE -32 288 -48 288
WIRE 384 304 384 272
WIRE 0 400 0 336
WIRE 64 400 64 80
WIRE 64 400 0 400
WIRE 384 400 384 368
WIRE 384 400 64 400
WIRE 448 400 448 272
WIRE 448 400 384 400
WIRE 576 400 576 240
WIRE 576 400 448 400
WIRE 64 432 64 400
FLAG 64 432 0
FLAG 704 256 0
FLAG 576 48 COM
FLAG 704 112 COM
FLAG 768 -32 0
SYMBOL Misc\\NE555 224 176 R0
SYMATTR InstName U1
SYMBOL diode -128 0 R270
WINDOW 0 32 32 VTop 2
WINDOW 3 0 32 VBottom 2
SYMATTR InstName D1
SYMATTR Value 1N4148
SYMBOL diode -48 272 R90
WINDOW 0 0 32 VBottom 2
WINDOW 3 32 32 VTop 2
SYMATTR InstName D2
SYMATTR Value 1N4148
SYMBOL res -32 128 R90
WINDOW 0 0 56 VBottom 2
WINDOW 3 32 56 VTop 2
SYMATTR InstName R1
SYMATTR Value 1k
SYMBOL res -192 16 R0
SYMATTR InstName R2
SYMATTR Value 25k
SYMBOL res -192 160 R0
SYMATTR InstName R3
SYMATTR Value 75k
SYMBOL cap -16 272 R0
SYMATTR InstName C1
SYMATTR Value 100nF
SYMBOL cap 368 304 R0
WINDOW 0 26 7 Left 2
SYMATTR InstName C2
SYMATTR Value 100nF
SYMBOL cap 432 208 R0
WINDOW 0 26 7 Left 2
SYMATTR InstName C3
SYMATTR Value 100nF
SYMBOL voltage 576 144 R0
WINDOW 123 0 0 Left 2
WINDOW 39 24 124 Left 2
SYMATTR SpiceLine Rser=0
SYMATTR InstName V1
SYMATTR Value 12V
SYMBOL polcap 688 160 R0
WINDOW 3 24 56 Left 2
SYMATTR InstName C4
SYMATTR Value 0.47µ
SYMATTR Description Capacitor
SYMATTR Type cap
SYMATTR SpiceLine V=50 Irms=22m Rser=3.9 Lser=0 mfg="Nichicon" pn="UPL1HR47MAH" type="Al electrolytic"
SYMBOL res 640 -112 R90
WINDOW 0 0 56 VBottom 2
WINDOW 3 32 56 VTop 2
SYMATTR InstName R4
SYMATTR Value 120
SYMBOL npn 704 -144 R0
SYMATTR InstName Q1
TEXT -192 456 Left 2 !.tran 0 30m 0
