Version 4
SHEET 1 1452 680
WIRE 0 -832 -96 -832
WIRE 48 -832 0 -832
WIRE 96 -832 48 -832
WIRE 592 -832 96 -832
WIRE -96 -816 -96 -832
WIRE 0 -800 0 -832
WIRE 96 -800 96 -832
WIRE -96 -704 -96 -736
WIRE 0 -688 0 -720
WIRE 48 -688 0 -688
WIRE 96 -688 96 -720
WIRE 96 -688 48 -688
WIRE 48 -656 48 -688
WIRE 592 -624 592 -832
WIRE 880 -624 592 -624
WIRE 48 -592 -176 -592
WIRE 256 -592 48 -592
WIRE 592 -544 592 -624
WIRE 256 -528 256 -592
WIRE 880 -528 880 -624
WIRE 384 -464 368 -464
WIRE 496 -464 464 -464
WIRE 544 -464 496 -464
WIRE 48 -416 -80 -416
WIRE 496 -416 496 -464
WIRE 496 -416 464 -416
WIRE 48 -384 48 -416
WIRE 592 -384 592 -448
WIRE 880 -384 880 -464
WIRE 880 -384 592 -384
WIRE 464 -336 464 -416
WIRE 480 -336 464 -336
WIRE 592 -336 592 -384
WIRE 592 -336 560 -336
WIRE 256 -320 256 -448
WIRE -176 -272 -176 -592
WIRE 48 -272 48 -288
WIRE 192 -272 48 -272
WIRE 48 -256 48 -272
WIRE 368 -224 368 -464
WIRE 448 -224 368 -224
WIRE 592 -224 592 -336
WIRE 592 -224 512 -224
WIRE -80 -208 -80 -416
WIRE -16 -208 -80 -208
WIRE 48 -128 48 -160
WIRE 368 -128 368 -224
WIRE 448 -128 368 -128
WIRE 592 -128 592 -224
WIRE 592 -128 512 -128
WIRE -80 -112 -80 -208
WIRE -80 -112 -112 -112
WIRE -16 -112 -80 -112
WIRE 256 -112 256 -224
WIRE 368 -96 368 -128
WIRE -112 -80 -112 -112
WIRE -16 -80 -16 -112
WIRE 256 0 256 -32
WIRE 368 0 368 -16
WIRE 368 0 256 0
WIRE 592 0 592 -48
WIRE 368 16 368 0
WIRE -608 64 -720 64
WIRE -432 64 -528 64
WIRE -176 64 -176 -192
WIRE -176 64 -240 64
WIRE -112 64 -112 0
WIRE -112 64 -176 64
WIRE -16 64 -16 -16
WIRE -16 64 -112 64
WIRE 304 64 -16 64
WIRE -720 96 -720 64
WIRE -176 128 -240 128
WIRE -176 144 -176 128
WIRE 368 144 368 112
WIRE -432 160 -464 160
WIRE -720 192 -720 176
WIRE -464 192 -464 160
FLAG -176 144 0
FLAG -464 192 0
FLAG -720 192 0
FLAG 368 144 0
FLAG 48 -128 0
FLAG 48 -832 VCC
FLAG -96 -704 0
FLAG 592 0 0
SYMBOL Optos\\4N25 -336 128 R0
SYMATTR InstName U2
SYMBOL voltage -720 80 M0
WINDOW 123 0 0 Left 2
WINDOW 39 0 0 Left 2
WINDOW 3 -298 -146 Left 2
SYMATTR Value PULSE(0 5 0 1u 1u 20m 40m)
SYMATTR InstName V3
SYMBOL npn 304 16 R0
SYMATTR InstName Q1
SYMATTR Value BC817-25
SYMBOL res 352 -112 R0
SYMATTR InstName R1
SYMATTR Value 15
SYMATTR SpiceLine tol=1 pwr=0.1
SYMBOL res -128 -96 R0
SYMATTR InstName R2
SYMATTR Value 887
SYMATTR SpiceLine tol=1 pwr=0.1
SYMBOL cap -32 -80 R0
SYMATTR InstName C1
SYMATTR Value 10n
SYMATTR SpiceLine V=100 Irms=4.58 Rser=0.025 Lser=0 mfg="KEMET" pn="C2225C105K1RAC" type="X7R"
SYMBOL npn -16 -256 R0
SYMATTR InstName Q2
SYMATTR Value BC817-25
SYMBOL npn -16 -384 R0
SYMATTR InstName Q3
SYMATTR Value BC817-25
SYMBOL res 368 -448 R270
WINDOW 0 32 56 VTop 2
WINDOW 3 0 56 VBottom 2
SYMATTR InstName R4
SYMATTR Value 10
SYMATTR SpiceLine tol=1 pwr=0.1
SYMBOL Misc\\nigbt 544 -544 R0
SYMATTR InstName U1
SYMATTR Value ngtb15n60s1e
SYMBOL diode 512 -112 M270
WINDOW 0 32 32 VTop 2
WINDOW 3 0 32 VBottom 2
SYMATTR InstName D1
SYMATTR Value 1N914
SYMBOL cap 448 -208 R270
WINDOW 0 32 32 VTop 2
WINDOW 3 0 32 VBottom 2
SYMATTR InstName C2
SYMATTR Value 10n
SYMATTR SpiceLine V=100 Irms=4.58 Rser=0.025 Lser=0 mfg="KEMET" pn="C2225C105K1RAC" type="X7R"
SYMBOL npn 192 -320 R0
SYMATTR InstName Q4
SYMATTR Value BC817-25
SYMBOL res 240 -128 R0
SYMATTR InstName R5
SYMATTR Value 47.5
SYMATTR SpiceLine tol=1 pwr=0.1
SYMBOL res 272 -544 M0
SYMATTR InstName R6
SYMATTR Value 2.21K
SYMATTR SpiceLine tol=1 pwr=0.1
SYMBOL res -192 -288 R0
SYMATTR InstName R7
SYMATTR Value 8.25K
SYMATTR SpiceLine tol=1 pwr=0.1
SYMBOL diode 32 -656 R0
SYMATTR InstName D2
SYMATTR Value MURS120
SYMBOL res 80 -816 R0
SYMATTR InstName R8
SYMATTR Value 4.7
SYMATTR SpiceLine tol=1 pwr=0.1
SYMBOL res -16 -816 R0
SYMATTR InstName R9
SYMATTR Value 3.9
SYMATTR SpiceLine tol=1 pwr=0.1
SYMBOL cap 864 -528 R0
SYMATTR InstName C3
SYMATTR Value 3.88µ
SYMATTR SpiceLine V=25 Irms=0 Rser=0.005 Lser=0
SYMBOL voltage -96 -832 M0
WINDOW 123 0 0 Left 2
WINDOW 39 0 0 Left 2
SYMATTR InstName V1
SYMATTR Value 30V
SYMBOL res -512 48 R90
WINDOW 0 0 56 VBottom 2
WINDOW 3 32 56 VTop 2
SYMATTR InstName R3
SYMATTR Value 221
SYMATTR SpiceLine tol=1 pwr=0.1
SYMBOL res 576 -352 R90
WINDOW 0 0 56 VBottom 2
WINDOW 3 32 56 VTop 2
SYMATTR InstName R10
SYMATTR Value 10K
SYMATTR SpiceLine tol=1 pwr=0.1
SYMBOL res 576 -144 R0
SYMATTR InstName R11
SYMATTR Value 100K
SYMATTR SpiceLine tol=1 pwr=0.1
TEXT -416 -16 Left 2 !.tran 0 200m 0
TEXT 648 -688 Left 2 !.lib 15N60.LIB
