Version 4
SHEET 1 1452 680
WIRE 496 -544 288 -544
WIRE 656 -544 560 -544
WIRE 656 -512 656 -544
WIRE 656 -400 656 -432
WIRE 288 -336 288 -544
WIRE 496 -336 288 -336
WIRE 656 -336 560 -336
WIRE 288 -320 288 -336
WIRE 656 -288 656 -336
WIRE 288 -192 288 -240
WIRE 656 -176 656 -208
FLAG 288 -192 0
FLAG 656 -400 0
FLAG 656 -176 0
SYMBOL Misc\\DIAC 496 -368 M90
WINDOW 0 0 32 VBottom 2
WINDOW 3 64 32 VTop 2
SYMATTR InstName U3
SYMATTR Value MKP3V240
SYMBOL voltage 288 -336 R0
WINDOW 123 0 0 Left 2
WINDOW 39 0 0 Left 2
SYMATTR InstName V1
SYMATTR Value SINE(0 30 60 0 0 0)
SYMBOL diode 496 -528 R270
WINDOW 0 32 32 VTop 2
WINDOW 3 0 32 VBottom 2
SYMATTR InstName D1
SYMBOL res 640 -528 R0
SYMATTR InstName R1
SYMATTR Value 158
SYMATTR SpiceLine tol=1 pwr=0.1
SYMBOL res 640 -304 R0
SYMATTR InstName R2
SYMATTR Value 150K
SYMATTR SpiceLine tol=1 pwr=0.1
TEXT 720 -536 Left 2 !.lib MKP3V240.LIB
TEXT 720 -504 Left 2 !.tran 0 100m 0
