**************************************
*      Model Generated by MODPEX     *
*Copyright(c) Symmetry Design Systems*
*         All Rights Reserved        *
*    UNPUBLISHED LICENSED SOFTWARE   *
*   Contains Proprietary Information *
*      Which is The Property of      *
*     SYMMETRY OR ITS LICENSORS      *
*Commercial Use or Resale Restricted *
*   by Symmetry License Agreement    *
**************************************
* Model generated on Jan 29, 03
* MODEL FORMAT: PSpice
.MODEL Dmra4003t3 d
+IS=5.63539e-10 RS=0.0399896 N=1.59812 EG=1.15367
+XTI=0.5 BV=300 IBV=1e-05 CJO=1.63488e-11
+VJ=0.4 M=0.215267 FC=0.5 TT=4.43935e-06
+KF=0 AF=1


