**************************************
*      Model Generated by MODPEX     *
*Copyright(c) Symmetry Design Systems*
*         All Rights Reserved        *
*    UNPUBLISHED LICENSED SOFTWARE   *
*   Contains Proprietary Information *
*      Which is The Property of      *
*     SYMMETRY OR ITS LICENSORS      *
*    Modeling services provided by   *
* Interface Technologies www.i-t.com *
**************************************
.MODEL Dmur3020wt d
+IS=2.09832e-06 RS=0.0102995 N=2 EG=1.27539
+XTI=0.5 BV=200 IBV=1e-05 CJO=1.14907e-09
+VJ=0.4 M=0.888092 FC=0.5 TT=7.76886e-08
+KF=0 AF=1
* Model generated on September 28, 2003
* Model format: PSpice
