**************************************
*      Model Generated by MODPEX     *
*Copyright(c) Symmetry Design Systems*
*         All Rights Reserved        *
*    UNPUBLISHED LICENSED SOFTWARE   *
*   Contains Proprietary Information *
*      Which is The Property of      *
*     SYMMETRY OR ITS LICENSORS      *
*Commercial Use or Resale Restricted *
*   by Symmetry License Agreement    *
**************************************
* Model generated on Jul 17, 98
* MODEL FORMAT: PSpice
.MODEL Dmur3020pt d
+IS=2.67101e-06 RS=0.01 N=2 EG=1.22186
+XTI=0.500001 BV=200 IBV=0.00025 CJO=6.22697e-10
+VJ=0.4 M=0.42567 FC=0.5 TT=1e-09
+KF=0 AF=1


