**************************************
*      Model Generated by MODPEX     *
*Copyright(c) Symmetry Design Systems*
*         All Rights Reserved        *
*    UNPUBLISHED LICENSED SOFTWARE   *
*   Contains Proprietary Information *
*      Which is The Property of      *
*     SYMMETRY OR ITS LICENSORS      *
*Commercial Use or Resale Restricted *
*   by Symmetry License Agreement    *
**************************************
* Model generated on Apr  5, 13
* MODEL FORMAT: PSpice
.MODEL Dnhpv08s600g d
+IS=6.77452e-09 RS=0.0705 N=3.57 EG=4.3
+XTI=0.5 BV=810 IBV=0.0001 CJO=1.00074e-10
+VJ=0.453759 M=0.287796 FC=0.5 TT=4.08e-08
+KF=0 AF=1


